


 20 20  0  0  0  0  0  0  0  0999 V2000
   10.9843   -2.8413    0.9897 C   0  0  0  0  0  0  0  0  0  0  0  0
   10.3024   -3.5299   -0.2095 C   0  0  0  0  0  0  0  0  0  0  0  0
    8.9152   -3.5245   -0.0041 O   0  0  0  0  0  0  0  0  0  0  0  0
   10.7352   -4.8742   -0.3411 O   0  0  0  0  0  0  0  0  0  0  0  0
   12.1518   -5.0630   -0.3073 C   0  0  0  0  0  0  0  0  0  0  0  0
   13.0166   -3.7683   -0.2633 C   0  0  0  0  0  0  0  0  0  0  0  0
   12.9840   -3.1568   -1.5295 O   0  0  0  0  0  0  0  0  0  0  0  0
   12.5214   -2.7760    0.8183 C   0  0  0  0  0  0  0  0  0  0  0  0
   13.1324   -3.0618    2.0524 O   0  0  0  0  0  0  0  0  0  0  0  0
    8.5048   -3.8726   -0.8376 H   0  0  0  0  0  0  0  0  0  0  0  0
   13.7544   -2.5322   -1.5719 H   0  0  0  0  0  0  0  0  0  0  0  0
   14.0683   -2.7366    1.9956 H   0  0  0  0  0  0  0  0  0  0  0  0
    9.8655    0.5289    2.6703 C   0  0  0  0  0  0  0  0  0  0  0  0
   10.4267   -0.8493    2.5267 C   0  0  0  0  0  0  0  0  0  0  0  0
   10.9039   -1.4207    3.5430 O   0  0  0  0  0  0  0  0  0  0  0  0
   10.4152   -1.5097    1.2479 N   0  0  0  0  0  0  0  0  0  0  0  0
    9.9946   -1.0048    0.4356 H   0  0  0  0  0  0  0  0  0  0  0  0
   12.4986   -6.0049    0.8587 C   0  0  0  0  0  0  0  0  0  0  0  0
   13.8604   -5.9065    1.1780 O   0  0  0  0  0  0  0  0  0  0  0  0
   14.3491   -6.4850    0.5350 H   0  0  0  0  0  0  0  0  0  0  0  0
 13 14  1  0  0  0
 14 15  2  0  0  0
 14 16  1  0  0  0
 16  1  1  0  0  0
 16 17  1  0  0  0
  1  2  1  0  0  0
  1  8  1  0  0  0
  2  3  1  0  0  0
  2  4  1  0  0  0
  3 10  1  0  0  0
  4  5  1  0  0  0
  5 18  1  0  0  0
  5  6  1  0  0  0
 18 19  1  0  0  0
 19 20  1  0  0  0
  6  7  1  0  0  0
  6  8  1  0  0  0
  7 11  1  0  0  0
  8  9  1  0  0  0
  9 12  1  0  0  0
M  END
> <minimizedAffinity>
-3.96947

> <CNNscore>
0.7705988288

> <CNNaffinity>
3.3453192711

> <CNN_VS>
2.5778992176

> <CNNaffinity_variance>
0.1865021586

$$$$



 20 20  0  0  0  0  0  0  0  0999 V2000
    6.0435   -1.0350   -2.4599 C   0  0  0  0  0  0  0  0  0  0  0  0
    6.3479   -0.8837   -3.9638 C   0  0  0  0  0  0  0  0  0  0  0  0
    5.2482   -0.2779   -4.5883 O   0  0  0  0  0  0  0  0  0  0  0  0
    6.5734   -2.1463   -4.5694 O   0  0  0  0  0  0  0  0  0  0  0  0
    7.4996   -2.9927   -3.8842 C   0  0  0  0  0  0  0  0  0  0  0  0
    8.2226   -2.3666   -2.6548 C   0  0  0  0  0  0  0  0  0  0  0  0
    9.1820   -1.4455   -3.1123 O   0  0  0  0  0  0  0  0  0  0  0  0
    7.2307   -1.6662   -1.6929 C   0  0  0  0  0  0  0  0  0  0  0  0
    6.7320   -2.5895   -0.7565 O   0  0  0  0  0  0  0  0  0  0  0  0
    5.5197   -0.0968   -5.5253 H   0  0  0  0  0  0  0  0  0  0  0  0
    9.8191   -1.2930   -2.3665 H   0  0  0  0  0  0  0  0  0  0  0  0
    7.4562   -2.7561   -0.0986 H   0  0  0  0  0  0  0  0  0  0  0  0
    4.6024    1.7190   -0.0572 C   0  0  0  0  0  0  0  0  0  0  0  0
    4.9292    0.3680   -0.6076 C   0  0  0  0  0  0  0  0  0  0  0  0
    4.5751   -0.6540    0.0385 O   0  0  0  0  0  0  0  0  0  0  0  0
    5.6321    0.2422   -1.8572 N   0  0  0  0  0  0  0  0  0  0  0  0
    5.8919    1.1162   -2.3673 H   0  0  0  0  0  0  0  0  0  0  0  0
    6.7870   -4.3022   -3.5046 C   0  0  0  0  0  0  0  0  0  0  0  0
    5.6056   -4.4484   -4.2455 O   0  0  0  0  0  0  0  0  0  0  0  0
    4.9092   -3.9092   -3.7858 H   0  0  0  0  0  0  0  0  0  0  0  0
 13 14  1  0  0  0
 14 15  2  0  0  0
 14 16  1  0  0  0
 16  1  1  0  0  0
 16 17  1  0  0  0
  1  2  1  0  0  0
  1  8  1  0  0  0
  2  3  1  0  0  0
  2  4  1  0  0  0
  3 10  1  0  0  0
  4  5  1  0  0  0
  5 18  1  0  0  0
  5  6  1  0  0  0
 18 19  1  0  0  0
 19 20  1  0  0  0
  6  7  1  0  0  0
  6  8  1  0  0  0
  7 11  1  0  0  0
  8  9  1  0  0  0
  9 12  1  0  0  0
M  END
> <minimizedAffinity>
-6.63428

> <CNNscore>
0.7558932304

> <CNNaffinity>
3.9634418488

> <CNN_VS>
2.9959387779

> <CNNaffinity_variance>
0.1732320786

$$$$



 20 20  0  0  0  0  0  0  0  0999 V2000
    1.6646   13.1005    4.5471 C   0  0  0  0  0  0  0  0  0  0  0  0
    0.4510   13.6589    3.7773 C   0  0  0  0  0  0  0  0  0  0  0  0
    0.7943   14.9064    3.2368 O   0  0  0  0  0  0  0  0  0  0  0  0
   -0.6650   13.8293    4.6360 O   0  0  0  0  0  0  0  0  0  0  0  0
   -0.9810   12.7002    5.4539 C   0  0  0  0  0  0  0  0  0  0  0  0
   -0.1469   11.4102    5.1961 C   0  0  0  0  0  0  0  0  0  0  0  0
   -0.5673   10.8317    3.9850 O   0  0  0  0  0  0  0  0  0  0  0  0
    1.3735   11.7026    5.1452 C   0  0  0  0  0  0  0  0  0  0  0  0
    1.9224   11.6343    6.4382 O   0  0  0  0  0  0  0  0  0  0  0  0
    0.0353   15.1835    2.6611 H   0  0  0  0  0  0  0  0  0  0  0  0
   -0.2591    9.8880    3.9899 H   0  0  0  0  0  0  0  0  0  0  0  0
    1.9823   10.6731    6.6781 H   0  0  0  0  0  0  0  0  0  0  0  0
    5.3879   13.1202    3.2938 C   0  0  0  0  0  0  0  0  0  0  0  0
    4.2194   13.1965    4.2232 C   0  0  0  0  0  0  0  0  0  0  0  0
    4.4309   13.3620    5.4541 O   0  0  0  0  0  0  0  0  0  0  0  0
    2.8773   13.0872    3.7148 N   0  0  0  0  0  0  0  0  0  0  0  0
    2.7481   12.9672    2.6850 H   0  0  0  0  0  0  0  0  0  0  0  0
   -0.9111   13.1233    6.9313 C   0  0  0  0  0  0  0  0  0  0  0  0
   -0.7980   11.9961    7.7577 O   0  0  0  0  0  0  0  0  0  0  0  0
   -1.7159   11.6362    7.8803 H   0  0  0  0  0  0  0  0  0  0  0  0
 13 14  1  0  0  0
 14 15  2  0  0  0
 14 16  1  0  0  0
 16  1  1  0  0  0
 16 17  1  0  0  0
  1  2  1  0  0  0
  1  8  1  0  0  0
  2  3  1  0  0  0
  2  4  1  0  0  0
  3 10  1  0  0  0
  4  5  1  0  0  0
  5 18  1  0  0  0
  5  6  1  0  0  0
 18 19  1  0  0  0
 19 20  1  0  0  0
  6  7  1  0  0  0
  6  8  1  0  0  0
  7 11  1  0  0  0
  8  9  1  0  0  0
  9 12  1  0  0  0
M  END
> <minimizedAffinity>
-5.63017

> <CNNscore>
0.7285064459

> <CNNaffinity>
3.4779021740

> <CNN_VS>
2.5336742401

> <CNNaffinity_variance>
0.1834462136

$$$$



 20 20  0  0  0  0  0  0  0  0999 V2000
   -0.8533  -20.9335    2.6905 C   0  0  0  0  0  0  0  0  0  0  0  0
    0.5359  -20.5224    3.2183 C   0  0  0  0  0  0  0  0  0  0  0  0
    1.4132  -20.3987    2.1314 O   0  0  0  0  0  0  0  0  0  0  0  0
    1.0534  -21.4972    4.1091 O   0  0  0  0  0  0  0  0  0  0  0  0
    0.1555  -21.9175    5.1390 C   0  0  0  0  0  0  0  0  0  0  0  0
   -1.2030  -21.1596    5.2176 C   0  0  0  0  0  0  0  0  0  0  0  0
   -0.9765  -19.8740    5.7412 O   0  0  0  0  0  0  0  0  0  0  0  0
   -1.8904  -21.0554    3.8332 C   0  0  0  0  0  0  0  0  0  0  0  0
   -2.6921  -22.1882    3.6052 O   0  0  0  0  0  0  0  0  0  0  0  0
    2.2602  -20.0293    2.4926 H   0  0  0  0  0  0  0  0  0  0  0  0
   -1.8512  -19.5314    6.0623 H   0  0  0  0  0  0  0  0  0  0  0  0
   -3.5063  -22.0852    4.1633 H   0  0  0  0  0  0  0  0  0  0  0  0
   -2.7368  -19.3615   -0.3780 C   0  0  0  0  0  0  0  0  0  0  0  0
   -2.2878  -20.3769    0.6232 C   0  0  0  0  0  0  0  0  0  0  0  0
   -2.7646  -21.5415    0.5642 O   0  0  0  0  0  0  0  0  0  0  0  0
   -1.3233  -20.0262    1.6324 N   0  0  0  0  0  0  0  0  0  0  0  0
   -0.9422  -19.0534    1.6338 H   0  0  0  0  0  0  0  0  0  0  0  0
   -0.0595  -23.4362    5.0197 C   0  0  0  0  0  0  0  0  0  0  0  0
   -1.2054  -23.8248    5.7284 O   0  0  0  0  0  0  0  0  0  0  0  0
   -0.9379  -23.9142    6.6809 H   0  0  0  0  0  0  0  0  0  0  0  0
 13 14  1  0  0  0
 14 15  2  0  0  0
 14 16  1  0  0  0
 16  1  1  0  0  0
 16 17  1  0  0  0
  1  2  1  0  0  0
  1  8  1  0  0  0
  2  3  1  0  0  0
  2  4  1  0  0  0
  3 10  1  0  0  0
  4  5  1  0  0  0
  5 18  1  0  0  0
  5  6  1  0  0  0
 18 19  1  0  0  0
 19 20  1  0  0  0
  6  7  1  0  0  0
  6  8  1  0  0  0
  7 11  1  0  0  0
  8  9  1  0  0  0
  9 12  1  0  0  0
M  END
> <minimizedAffinity>
-3.77129

> <CNNscore>
0.5305892229

> <CNNaffinity>
2.4407515526

> <CNN_VS>
1.2950364351

> <CNNaffinity_variance>
0.0723744482

$$$$



 20 20  0  0  0  0  0  0  0  0999 V2000
   -4.6605   16.5731   -1.2754 C   0  0  0  0  0  0  0  0  0  0  0  0
   -5.8995   16.8011   -2.1644 C   0  0  0  0  0  0  0  0  0  0  0  0
   -5.6432   17.8749   -3.0291 O   0  0  0  0  0  0  0  0  0  0  0  0
   -7.0403   17.1127   -1.3814 O   0  0  0  0  0  0  0  0  0  0  0  0
   -7.2833   16.2307   -0.2829 C   0  0  0  0  0  0  0  0  0  0  0  0
   -6.3482   14.9893   -0.1787 C   0  0  0  0  0  0  0  0  0  0  0  0
   -6.7013   14.0689   -1.1819 O   0  0  0  0  0  0  0  0  0  0  0  0
   -4.8541   15.3751   -0.3143 C   0  0  0  0  0  0  0  0  0  0  0  0
   -4.3247   15.7083    0.9453 O   0  0  0  0  0  0  0  0  0  0  0  0
   -6.4109   17.9225   -3.6557 H   0  0  0  0  0  0  0  0  0  0  0  0
   -6.3218   13.1903   -0.9185 H   0  0  0  0  0  0  0  0  0  0  0  0
   -4.1955   14.8579    1.4405 H   0  0  0  0  0  0  0  0  0  0  0  0
   -0.9212   16.4536   -2.4746 C   0  0  0  0  0  0  0  0  0  0  0  0
   -2.1052   16.6830   -1.5911 C   0  0  0  0  0  0  0  0  0  0  0  0
   -1.9171   17.1070   -0.4198 O   0  0  0  0  0  0  0  0  0  0  0  0
   -3.4357   16.4270   -2.0767 N   0  0  0  0  0  0  0  0  0  0  0  0
   -3.5459   16.0918   -3.0601 H   0  0  0  0  0  0  0  0  0  0  0  0
   -7.2724   17.0478    1.0205 C   0  0  0  0  0  0  0  0  0  0  0  0
   -6.9787   16.2202    2.1138 O   0  0  0  0  0  0  0  0  0  0  0  0
   -7.8278   15.7744    2.3732 H   0  0  0  0  0  0  0  0  0  0  0  0
 13 14  1  0  0  0
 14 15  2  0  0  0
 14 16  1  0  0  0
 16  1  1  0  0  0
 16 17  1  0  0  0
  1  2  1  0  0  0
  1  8  1  0  0  0
  2  3  1  0  0  0
  2  4  1  0  0  0
  3 10  1  0  0  0
  4  5  1  0  0  0
  5 18  1  0  0  0
  5  6  1  0  0  0
 18 19  1  0  0  0
 19 20  1  0  0  0
  6  7  1  0  0  0
  6  8  1  0  0  0
  7 11  1  0  0  0
  8  9  1  0  0  0
  9 12  1  0  0  0
M  END
> <minimizedAffinity>
-3.63450

> <CNNscore>
0.5279092789

> <CNNaffinity>
2.6090345383

> <CNN_VS>
1.3773335218

> <CNNaffinity_variance>
0.0819988996

$$$$



 20 20  0  0  0  0  0  0  0  0999 V2000
   -2.9334   14.9065    5.4180 C   0  0  0  0  0  0  0  0  0  0  0  0
   -3.1932   14.5041    6.8836 C   0  0  0  0  0  0  0  0  0  0  0  0
   -4.3606   15.1422    7.3267 O   0  0  0  0  0  0  0  0  0  0  0  0
   -2.1173   14.8970    7.7202 O   0  0  0  0  0  0  0  0  0  0  0  0
   -0.8174   14.5301    7.2517 C   0  0  0  0  0  0  0  0  0  0  0  0
   -0.7733   13.6460    5.9701 C   0  0  0  0  0  0  0  0  0  0  0  0
   -1.1786   12.3412    6.3038 O   0  0  0  0  0  0  0  0  0  0  0  0
   -1.6753   14.2105    4.8443 C   0  0  0  0  0  0  0  0  0  0  0  0
   -0.9556   15.1345    4.0658 O   0  0  0  0  0  0  0  0  0  0  0  0
   -4.5569   14.7778    8.2285 H   0  0  0  0  0  0  0  0  0  0  0  0
   -0.8612   11.7425    5.5784 H   0  0  0  0  0  0  0  0  0  0  0  0
   -0.3395   14.6116    3.4896 H   0  0  0  0  0  0  0  0  0  0  0  0
   -5.6042   15.0240    2.5393 C   0  0  0  0  0  0  0  0  0  0  0  0
   -4.4023   15.3795    3.3541 C   0  0  0  0  0  0  0  0  0  0  0  0
   -3.6534   16.3122    2.9585 O   0  0  0  0  0  0  0  0  0  0  0  0
   -4.1126   14.6686    4.5716 N   0  0  0  0  0  0  0  0  0  0  0  0
   -4.7698   13.9133    4.8702 H   0  0  0  0  0  0  0  0  0  0  0  0
    0.0253   15.8055    7.0785 C   0  0  0  0  0  0  0  0  0  0  0  0
   -0.7392   16.9413    7.3813 O   0  0  0  0  0  0  0  0  0  0  0  0
   -1.2710   17.1547    6.5697 H   0  0  0  0  0  0  0  0  0  0  0  0
 13 14  1  0  0  0
 14 15  2  0  0  0
 14 16  1  0  0  0
 16  1  1  0  0  0
 16 17  1  0  0  0
  1  2  1  0  0  0
  1  8  1  0  0  0
  2  3  1  0  0  0
  2  4  1  0  0  0
  3 10  1  0  0  0
  4  5  1  0  0  0
  5 18  1  0  0  0
  5  6  1  0  0  0
 18 19  1  0  0  0
 19 20  1  0  0  0
  6  7  1  0  0  0
  6  8  1  0  0  0
  7 11  1  0  0  0
  8  9  1  0  0  0
  9 12  1  0  0  0
M  END
> <minimizedAffinity>
-3.51585

> <CNNscore>
0.5165920854

> <CNNaffinity>
2.8852758408

> <CNN_VS>
1.4905107021

> <CNNaffinity_variance>
0.1055162922

$$$$



 20 20  0  0  0  0  0  0  0  0999 V2000
   -7.4848   16.0656   -0.5319 C   0  0  0  0  0  0  0  0  0  0  0  0
   -7.1462   17.3158    0.3046 C   0  0  0  0  0  0  0  0  0  0  0  0
   -7.8464   18.4123   -0.2186 O   0  0  0  0  0  0  0  0  0  0  0  0
   -5.7576   17.6015    0.2581 O   0  0  0  0  0  0  0  0  0  0  0  0
   -4.8989   16.4899    0.5238 C   0  0  0  0  0  0  0  0  0  0  0  0
   -5.6004   15.1666    0.9514 C   0  0  0  0  0  0  0  0  0  0  0  0
   -6.0669   15.3056    2.2710 O   0  0  0  0  0  0  0  0  0  0  0  0
   -6.7743   14.8012    0.0091 C   0  0  0  0  0  0  0  0  0  0  0  0
   -6.3040   14.0404   -1.0762 O   0  0  0  0  0  0  0  0  0  0  0  0
   -7.6931   19.1690    0.4046 H   0  0  0  0  0  0  0  0  0  0  0  0
   -6.2274   14.3908    2.6216 H   0  0  0  0  0  0  0  0  0  0  0  0
   -6.1223   13.1268   -0.7337 H   0  0  0  0  0  0  0  0  0  0  0  0
  -11.0579   14.8389   -1.6099 C   0  0  0  0  0  0  0  0  0  0  0  0
   -9.5738   15.0184   -1.6185 C   0  0  0  0  0  0  0  0  0  0  0  0
   -8.8942   14.4239   -2.4971 O   0  0  0  0  0  0  0  0  0  0  0  0
   -8.9374   15.8611   -0.6405 N   0  0  0  0  0  0  0  0  0  0  0  0
   -9.5415   16.3478    0.0593 H   0  0  0  0  0  0  0  0  0  0  0  0
   -3.9845   16.2680   -0.6934 C   0  0  0  0  0  0  0  0  0  0  0  0
   -2.7091   15.8590   -0.2785 O   0  0  0  0  0  0  0  0  0  0  0  0
   -2.2116   16.6810   -0.0257 H   0  0  0  0  0  0  0  0  0  0  0  0
 13 14  1  0  0  0
 14 15  2  0  0  0
 14 16  1  0  0  0
 16  1  1  0  0  0
 16 17  1  0  0  0
  1  2  1  0  0  0
  1  8  1  0  0  0
  2  3  1  0  0  0
  2  4  1  0  0  0
  3 10  1  0  0  0
  4  5  1  0  0  0
  5 18  1  0  0  0
  5  6  1  0  0  0
 18 19  1  0  0  0
 19 20  1  0  0  0
  6  7  1  0  0  0
  6  8  1  0  0  0
  7 11  1  0  0  0
  8  9  1  0  0  0
  9 12  1  0  0  0
M  END
> <minimizedAffinity>
-3.77502

> <CNNscore>
0.5066100359

> <CNNaffinity>
2.6312499046

> <CNN_VS>
1.3330175877

> <CNNaffinity_variance>
0.0492350273

$$$$



 20 20  0  0  0  0  0  0  0  0999 V2000
    7.4341   -3.4307   -3.5391 C   0  0  0  0  0  0  0  0  0  0  0  0
    5.9525   -3.8547   -3.5878 C   0  0  0  0  0  0  0  0  0  0  0  0
    5.7972   -4.8406   -4.5728 O   0  0  0  0  0  0  0  0  0  0  0  0
    5.1165   -2.7556   -3.9118 O   0  0  0  0  0  0  0  0  0  0  0  0
    5.3440   -1.5714   -3.1441 C   0  0  0  0  0  0  0  0  0  0  0  0
    6.3760   -1.6926   -1.9837 C   0  0  0  0  0  0  0  0  0  0  0  0
    5.7979   -2.4330   -0.9369 O   0  0  0  0  0  0  0  0  0  0  0  0
    7.6925   -2.3657   -2.4458 C   0  0  0  0  0  0  0  0  0  0  0  0
    8.5793   -1.3975   -2.9500 O   0  0  0  0  0  0  0  0  0  0  0  0
    4.8628   -5.1665   -4.5016 H   0  0  0  0  0  0  0  0  0  0  0  0
    6.3276   -2.2443   -0.1187 H   0  0  0  0  0  0  0  0  0  0  0  0
    8.9496   -0.9083   -2.1699 H   0  0  0  0  0  0  0  0  0  0  0  0
   10.5424   -5.8333   -3.5366 C   0  0  0  0  0  0  0  0  0  0  0  0
    9.7070   -4.6194   -3.7885 C   0  0  0  0  0  0  0  0  0  0  0  0
   10.2311   -3.6291   -4.3645 O   0  0  0  0  0  0  0  0  0  0  0  0
    8.3264   -4.5895   -3.3825 N   0  0  0  0  0  0  0  0  0  0  0  0
    7.9288   -5.4393   -2.9229 H   0  0  0  0  0  0  0  0  0  0  0  0
    5.7126   -0.4239   -4.1002 C   0  0  0  0  0  0  0  0  0  0  0  0
    4.5560    0.2328   -4.5444 O   0  0  0  0  0  0  0  0  0  0  0  0
    4.1898   -0.3057   -5.2947 H   0  0  0  0  0  0  0  0  0  0  0  0
 13 14  1  0  0  0
 14 15  2  0  0  0
 14 16  1  0  0  0
 16  1  1  0  0  0
 16 17  1  0  0  0
  1  2  1  0  0  0
  1  8  1  0  0  0
  2  3  1  0  0  0
  2  4  1  0  0  0
  3 10  1  0  0  0
  4  5  1  0  0  0
  5 18  1  0  0  0
  5  6  1  0  0  0
 18 19  1  0  0  0
 19 20  1  0  0  0
  6  7  1  0  0  0
  6  8  1  0  0  0
  7 11  1  0  0  0
  8  9  1  0  0  0
  9 12  1  0  0  0
M  END
> <minimizedAffinity>
-6.28397

> <CNNscore>
0.4935316443

> <CNNaffinity>
3.7431712151

> <CNN_VS>
1.8473734856

> <CNNaffinity_variance>
0.1470830888

$$$$



 20 20  0  0  0  0  0  0  0  0999 V2000
   -1.5356   14.3757    5.1994 C   0  0  0  0  0  0  0  0  0  0  0  0
   -2.9636   14.8745    4.9005 C   0  0  0  0  0  0  0  0  0  0  0  0
   -3.0879   15.0871    3.5201 O   0  0  0  0  0  0  0  0  0  0  0  0
   -3.2300   16.0950    5.5722 O   0  0  0  0  0  0  0  0  0  0  0  0
   -2.9031   16.1072    6.9639 C   0  0  0  0  0  0  0  0  0  0  0  0
   -2.4286   14.7531    7.5700 C   0  0  0  0  0  0  0  0  0  0  0  0
   -3.5373   13.8960    7.6909 O   0  0  0  0  0  0  0  0  0  0  0  0
   -1.3315   14.0830    6.7057 C   0  0  0  0  0  0  0  0  0  0  0  0
   -0.0611   14.5448    7.0939 O   0  0  0  0  0  0  0  0  0  0  0  0
   -4.0423   15.2993    3.3516 H   0  0  0  0  0  0  0  0  0  0  0  0
   -3.2873   13.1849    8.3369 H   0  0  0  0  0  0  0  0  0  0  0  0
    0.1598   14.1000    7.9532 H   0  0  0  0  0  0  0  0  0  0  0  0
    0.4148   11.5690    3.2623 C   0  0  0  0  0  0  0  0  0  0  0  0
    0.1640   12.8005    4.0718 C   0  0  0  0  0  0  0  0  0  0  0  0
    1.1492   13.4712    4.4801 O   0  0  0  0  0  0  0  0  0  0  0  0
   -1.1822   13.2115    4.3727 N   0  0  0  0  0  0  0  0  0  0  0  0
   -1.9692   12.6344    3.9998 H   0  0  0  0  0  0  0  0  0  0  0  0
   -1.8766   17.2236    7.2222 C   0  0  0  0  0  0  0  0  0  0  0  0
   -1.2449   17.0302    8.4590 O   0  0  0  0  0  0  0  0  0  0  0  0
   -1.8534   17.3973    9.1532 H   0  0  0  0  0  0  0  0  0  0  0  0
 13 14  1  0  0  0
 14 15  2  0  0  0
 14 16  1  0  0  0
 16  1  1  0  0  0
 16 17  1  0  0  0
  1  2  1  0  0  0
  1  8  1  0  0  0
  2  3  1  0  0  0
  2  4  1  0  0  0
  3 10  1  0  0  0
  4  5  1  0  0  0
  5 18  1  0  0  0
  5  6  1  0  0  0
 18 19  1  0  0  0
 19 20  1  0  0  0
  6  7  1  0  0  0
  6  8  1  0  0  0
  7 11  1  0  0  0
  8  9  1  0  0  0
  9 12  1  0  0  0
M  END
> <minimizedAffinity>
-3.92772

> <CNNscore>
0.4778124690

> <CNNaffinity>
2.8409409523

> <CNN_VS>
1.3574370146

> <CNNaffinity_variance>
0.1984686553

$$$$
