


 20 20  0  0  0  0  0  0  0  0999 V2000
    6.1111   -1.4264   -3.1477 C   0  0  0  0  0  0  0  0  0  0  0  0
    7.3762   -1.9909   -2.4704 C   0  0  0  0  0  0  0  0  0  0  0  0
    8.3272   -0.9654   -2.3668 O   0  0  0  0  0  0  0  0  0  0  0  0
    7.9334   -3.0498   -3.2303 O   0  0  0  0  0  0  0  0  0  0  0  0
    7.0070   -4.0615   -3.6355 C   0  0  0  0  0  0  0  0  0  0  0  0
    5.5580   -3.9273   -3.0810 C   0  0  0  0  0  0  0  0  0  0  0  0
    5.5588   -4.2721   -1.7180 O   0  0  0  0  0  0  0  0  0  0  0  0
    4.9964   -2.4949   -3.2651 C   0  0  0  0  0  0  0  0  0  0  0  0
    4.3791   -2.3760   -4.5243 O   0  0  0  0  0  0  0  0  0  0  0  0
    9.0787   -1.3312   -1.8319 H   0  0  0  0  0  0  0  0  0  0  0  0
    4.6195   -4.4733   -1.4669 H   0  0  0  0  0  0  0  0  0  0  0  0
    3.5103   -2.8506   -4.4669 H   0  0  0  0  0  0  0  0  0  0  0  0
    4.7149    1.1209   -0.5025 C   0  0  0  0  0  0  0  0  0  0  0  0
    5.1396   -0.1751   -1.1156 C   0  0  0  0  0  0  0  0  0  0  0  0
    5.0611   -1.2276   -0.4278 O   0  0  0  0  0  0  0  0  0  0  0  0
    5.6248   -0.2153   -2.4695 N   0  0  0  0  0  0  0  0  0  0  0  0
    5.6577    0.6791   -3.0084 H   0  0  0  0  0  0  0  0  0  0  0  0
    7.0111   -4.1495   -5.1710 C   0  0  0  0  0  0  0  0  0  0  0  0
    5.8804   -4.8419   -5.6245 O   0  0  0  0  0  0  0  0  0  0  0  0
    6.0843   -5.8111   -5.5459 H   0  0  0  0  0  0  0  0  0  0  0  0
  1 16  1  0  0  0
  1  2  1  0  0  0
  1  8  1  0  0  0
  2  3  1  0  0  0
  2  4  1  0  0  0
  3 10  1  0  0  0
  4  5  1  0  0  0
  5 18  1  0  0  0
  5  6  1  0  0  0
  6  7  1  0  0  0
  6  8  1  0  0  0
  7 11  1  0  0  0
  8  9  1  0  0  0
  9 12  1  0  0  0
 13 14  1  0  0  0
 14 15  2  0  0  0
 14 16  1  0  0  0
 16 17  1  0  0  0
 18 19  1  0  0  0
 19 20  1  0  0  0
M  END
> <COMPND>
    UNNAMED

> <AUTHOR>
    GENERATED BY OPEN BABEL 3.1.0

> <MASTER>
        0    0    0    0    0    0    0    0   20    0   20    0

> <minimizedAffinity>
-7.83223

> <CNNscore>
0.6903733611

> <CNNaffinity>
3.7967915535

> <CNN_VS>
2.6212036610

> <CNNaffinity_variance>
0.1599147022

$$$$



 20 20  0  0  0  0  0  0  0  0999 V2000
    7.8299   -3.2743   -4.1212 C   0  0  0  0  0  0  0  0  0  0  0  0
    9.1332   -2.4666   -3.9582 C   0  0  0  0  0  0  0  0  0  0  0  0
    8.8285   -1.2361   -3.3584 O   0  0  0  0  0  0  0  0  0  0  0  0
    9.7417   -2.2194   -5.2144 O   0  0  0  0  0  0  0  0  0  0  0  0
    9.8861   -3.3660   -6.0572 C   0  0  0  0  0  0  0  0  0  0  0  0
    9.4786   -4.7329   -5.4322 C   0  0  0  0  0  0  0  0  0  0  0  0
   10.4584   -5.1169   -4.4998 O   0  0  0  0  0  0  0  0  0  0  0  0
    8.0908   -4.6668   -4.7461 C   0  0  0  0  0  0  0  0  0  0  0  0
    7.0762   -4.9469   -5.6804 O   0  0  0  0  0  0  0  0  0  0  0  0
    9.6958   -0.7924   -3.1692 H   0  0  0  0  0  0  0  0  0  0  0  0
   10.3491   -6.0915   -4.3456 H   0  0  0  0  0  0  0  0  0  0  0  0
    7.0947   -5.9248   -5.8438 H   0  0  0  0  0  0  0  0  0  0  0  0
    5.0203   -3.6566   -1.4018 C   0  0  0  0  0  0  0  0  0  0  0  0
    5.6653   -3.4982   -2.7414 C   0  0  0  0  0  0  0  0  0  0  0  0
    4.9351   -3.4623   -3.7673 O   0  0  0  0  0  0  0  0  0  0  0  0
    7.0954   -3.3845   -2.8517 N   0  0  0  0  0  0  0  0  0  0  0  0
    7.6609   -3.4030   -1.9734 H   0  0  0  0  0  0  0  0  0  0  0  0
    9.1357   -3.1090   -7.3749 C   0  0  0  0  0  0  0  0  0  0  0  0
    8.0648   -2.2299   -7.1648 O   0  0  0  0  0  0  0  0  0  0  0  0
    7.3100   -2.7727   -6.8146 H   0  0  0  0  0  0  0  0  0  0  0  0
  1 16  1  0  0  0
  1  2  1  0  0  0
  1  8  1  0  0  0
  2  3  1  0  0  0
  2  4  1  0  0  0
  3 10  1  0  0  0
  4  5  1  0  0  0
  5 18  1  0  0  0
  5  6  1  0  0  0
  6  7  1  0  0  0
  6  8  1  0  0  0
  7 11  1  0  0  0
  8  9  1  0  0  0
  9 12  1  0  0  0
 13 14  1  0  0  0
 14 15  2  0  0  0
 14 16  1  0  0  0
 16 17  1  0  0  0
 18 19  1  0  0  0
 19 20  1  0  0  0
M  END
> <COMPND>
    UNNAMED

> <AUTHOR>
    GENERATED BY OPEN BABEL 3.1.0

> <MASTER>
        0    0    0    0    0    0    0    0   20    0   20    0

> <minimizedAffinity>
-7.64157

> <CNNscore>
0.6493988633

> <CNNaffinity>
3.9357078075

> <CNN_VS>
2.5558440685

> <CNNaffinity_variance>
0.1027197391

$$$$



 20 20  0  0  0  0  0  0  0  0999 V2000
    5.9160   -1.2966   -2.4258 C   0  0  0  0  0  0  0  0  0  0  0  0
    5.8779   -1.5640   -3.9440 C   0  0  0  0  0  0  0  0  0  0  0  0
    4.5780   -1.3226   -4.4114 O   0  0  0  0  0  0  0  0  0  0  0  0
    6.2211   -2.9083   -4.2348 O   0  0  0  0  0  0  0  0  0  0  0  0
    7.4146   -3.3819   -3.6046 C   0  0  0  0  0  0  0  0  0  0  0  0
    8.2314   -2.3275   -2.8008 C   0  0  0  0  0  0  0  0  0  0  0  0
    8.8791   -1.4679   -3.7055 O   0  0  0  0  0  0  0  0  0  0  0  0
    7.3339   -1.5073   -1.8403 C   0  0  0  0  0  0  0  0  0  0  0  0
    7.2243   -2.1656   -0.6012 O   0  0  0  0  0  0  0  0  0  0  0  0
    4.6159   -1.3963   -5.4003 H   0  0  0  0  0  0  0  0  0  0  0  0
    9.6097   -1.0164   -3.2075 H   0  0  0  0  0  0  0  0  0  0  0  0
    8.0834   -2.0307   -0.1245 H   0  0  0  0  0  0  0  0  0  0  0  0
    4.3743    1.8036   -0.5691 C   0  0  0  0  0  0  0  0  0  0  0  0
    4.8347    0.4032   -0.8193 C   0  0  0  0  0  0  0  0  0  0  0  0
    4.7230   -0.4474    0.1032 O   0  0  0  0  0  0  0  0  0  0  0  0
    5.3909    0.0368   -2.0946 N   0  0  0  0  0  0  0  0  0  0  0  0
    5.4497    0.7704   -2.8362 H   0  0  0  0  0  0  0  0  0  0  0  0
    7.0638   -4.5992   -2.7325 C   0  0  0  0  0  0  0  0  0  0  0  0
    5.6950   -4.8863   -2.8209 O   0  0  0  0  0  0  0  0  0  0  0  0
    5.2301   -4.2734   -2.1922 H   0  0  0  0  0  0  0  0  0  0  0  0
  1 16  1  0  0  0
  1  2  1  0  0  0
  1  8  1  0  0  0
  2  3  1  0  0  0
  2  4  1  0  0  0
  3 10  1  0  0  0
  4  5  1  0  0  0
  5 18  1  0  0  0
  5  6  1  0  0  0
  6  7  1  0  0  0
  6  8  1  0  0  0
  7 11  1  0  0  0
  8  9  1  0  0  0
  9 12  1  0  0  0
 13 14  1  0  0  0
 14 15  2  0  0  0
 14 16  1  0  0  0
 16 17  1  0  0  0
 18 19  1  0  0  0
 19 20  1  0  0  0
M  END
> <COMPND>
    UNNAMED

> <AUTHOR>
    GENERATED BY OPEN BABEL 3.1.0

> <MASTER>
        0    0    0    0    0    0    0    0   20    0   20    0

> <minimizedAffinity>
-7.88779

> <CNNscore>
0.6380802989

> <CNNaffinity>
3.7655322552

> <CNN_VS>
2.4027118683

> <CNNaffinity_variance>
0.1889340132

$$$$



 20 20  0  0  0  0  0  0  0  0999 V2000
    7.0965   -3.3839   -3.4158 C   0  0  0  0  0  0  0  0  0  0  0  0
    5.6540   -3.9286   -3.4410 C   0  0  0  0  0  0  0  0  0  0  0  0
    5.6024   -5.0266   -4.3118 O   0  0  0  0  0  0  0  0  0  0  0  0
    4.7438   -2.9436   -3.9000 O   0  0  0  0  0  0  0  0  0  0  0  0
    4.8575   -1.6667   -3.2655 C   0  0  0  0  0  0  0  0  0  0  0  0
    5.8654   -1.5755   -2.0820 C   0  0  0  0  0  0  0  0  0  0  0  0
    5.3212   -2.2400   -0.9689 O   0  0  0  0  0  0  0  0  0  0  0  0
    7.2423   -2.1874   -2.4437 C   0  0  0  0  0  0  0  0  0  0  0  0
    8.0634   -1.2115   -3.0388 O   0  0  0  0  0  0  0  0  0  0  0  0
    4.6947   -5.4168   -4.2197 H   0  0  0  0  0  0  0  0  0  0  0  0
    5.8138   -1.9205   -0.1682 H   0  0  0  0  0  0  0  0  0  0  0  0
    8.3736   -0.6118   -2.3125 H   0  0  0  0  0  0  0  0  0  0  0  0
   10.3712   -5.5370   -3.1412 C   0  0  0  0  0  0  0  0  0  0  0  0
    9.4459   -4.4340   -3.5448 C   0  0  0  0  0  0  0  0  0  0  0  0
    9.8890   -3.5030   -4.2688 O   0  0  0  0  0  0  0  0  0  0  0  0
    8.0728   -4.4420   -3.1153 N   0  0  0  0  0  0  0  0  0  0  0  0
    7.7440   -5.2421   -2.5293 H   0  0  0  0  0  0  0  0  0  0  0  0
    5.1588   -0.6065   -4.3383 C   0  0  0  0  0  0  0  0  0  0  0  0
    4.1518   -0.5963   -5.3127 O   0  0  0  0  0  0  0  0  0  0  0  0
    4.3579   -1.3312   -5.9488 H   0  0  0  0  0  0  0  0  0  0  0  0
  1 16  1  0  0  0
  1  2  1  0  0  0
  1  8  1  0  0  0
  2  3  1  0  0  0
  2  4  1  0  0  0
  3 10  1  0  0  0
  4  5  1  0  0  0
  5 18  1  0  0  0
  5  6  1  0  0  0
  6  7  1  0  0  0
  6  8  1  0  0  0
  7 11  1  0  0  0
  8  9  1  0  0  0
  9 12  1  0  0  0
 13 14  1  0  0  0
 14 15  2  0  0  0
 14 16  1  0  0  0
 16 17  1  0  0  0
 18 19  1  0  0  0
 19 20  1  0  0  0
M  END
> <COMPND>
    UNNAMED

> <AUTHOR>
    GENERATED BY OPEN BABEL 3.1.0

> <MASTER>
        0    0    0    0    0    0    0    0   20    0   20    0

> <minimizedAffinity>
-7.86922

> <CNNscore>
0.6301835775

> <CNNaffinity>
3.9652607441

> <CNN_VS>
2.4988422394

> <CNNaffinity_variance>
0.0645158440

$$$$



 20 20  0  0  0  0  0  0  0  0999 V2000
    5.8672   -1.7333   -3.2296 C   0  0  0  0  0  0  0  0  0  0  0  0
    7.2765   -1.1496   -3.4557 C   0  0  0  0  0  0  0  0  0  0  0  0
    7.1602    0.0317   -4.2024 O   0  0  0  0  0  0  0  0  0  0  0  0
    8.0971   -2.0579   -4.1704 O   0  0  0  0  0  0  0  0  0  0  0  0
    8.1112   -3.3950   -3.6625 C   0  0  0  0  0  0  0  0  0  0  0  0
    7.3348   -3.6328   -2.3337 C   0  0  0  0  0  0  0  0  0  0  0  0
    8.0657   -3.0695   -1.2729 O   0  0  0  0  0  0  0  0  0  0  0  0
    5.9100   -3.0254   -2.3773 C   0  0  0  0  0  0  0  0  0  0  0  0
    5.0033   -3.9583   -2.9142 O   0  0  0  0  0  0  0  0  0  0  0  0
    8.0662    0.4353   -4.2342 H   0  0  0  0  0  0  0  0  0  0  0  0
    7.7289   -3.4815   -0.4347 H   0  0  0  0  0  0  0  0  0  0  0  0
    4.8348   -4.6365   -2.2106 H   0  0  0  0  0  0  0  0  0  0  0  0
    4.1142    0.8543   -0.8491 C   0  0  0  0  0  0  0  0  0  0  0  0
    5.0697   -0.1932   -1.3240 C   0  0  0  0  0  0  0  0  0  0  0  0
    5.9738   -0.5908   -0.5420 O   0  0  0  0  0  0  0  0  0  0  0  0
    4.9522   -0.7380   -2.6504 N   0  0  0  0  0  0  0  0  0  0  0  0
    4.1776   -0.3908   -3.2595 H   0  0  0  0  0  0  0  0  0  0  0  0
    7.6300   -4.3493   -4.7685 C   0  0  0  0  0  0  0  0  0  0  0  0
    8.2871   -4.0715   -5.9746 O   0  0  0  0  0  0  0  0  0  0  0  0
    7.8098   -3.3080   -6.3944 H   0  0  0  0  0  0  0  0  0  0  0  0
  1 16  1  0  0  0
  1  2  1  0  0  0
  1  8  1  0  0  0
  2  3  1  0  0  0
  2  4  1  0  0  0
  3 10  1  0  0  0
  4  5  1  0  0  0
  5 18  1  0  0  0
  5  6  1  0  0  0
  6  7  1  0  0  0
  6  8  1  0  0  0
  7 11  1  0  0  0
  8  9  1  0  0  0
  9 12  1  0  0  0
 13 14  1  0  0  0
 14 15  2  0  0  0
 14 16  1  0  0  0
 16 17  1  0  0  0
 18 19  1  0  0  0
 19 20  1  0  0  0
M  END
> <COMPND>
    UNNAMED

> <AUTHOR>
    GENERATED BY OPEN BABEL 3.1.0

> <MASTER>
        0    0    0    0    0    0    0    0   20    0   20    0

> <minimizedAffinity>
-7.80709

> <CNNscore>
0.5822835565

> <CNNaffinity>
3.6029579639

> <CNN_VS>
2.0979430676

> <CNNaffinity_variance>
0.2079137862

$$$$



 20 20  0  0  0  0  0  0  0  0999 V2000
    5.1709   -3.2744    3.1653 C   0  0  0  0  0  0  0  0  0  0  0  0
    4.6538   -3.2744    1.7126 C   0  0  0  0  0  0  0  0  0  0  0  0
    5.0105   -4.4883    1.1076 O   0  0  0  0  0  0  0  0  0  0  0  0
    5.2243   -2.2123    0.9671 O   0  0  0  0  0  0  0  0  0  0  0  0
    5.1613   -0.9273    1.5921 C   0  0  0  0  0  0  0  0  0  0  0  0
    4.3679   -0.8528    2.9300 C   0  0  0  0  0  0  0  0  0  0  0  0
    2.9932   -0.9424    2.6491 O   0  0  0  0  0  0  0  0  0  0  0  0
    4.7823   -1.9758    3.9139 C   0  0  0  0  0  0  0  0  0  0  0  0
    5.8736   -1.5543    4.6963 O   0  0  0  0  0  0  0  0  0  0  0  0
    4.5704   -4.4999    0.2182 H   0  0  0  0  0  0  0  0  0  0  0  0
    2.5094   -0.5963    3.4440 H   0  0  0  0  0  0  0  0  0  0  0  0
    5.5194   -0.9164    5.3678 H   0  0  0  0  0  0  0  0  0  0  0  0
    4.9741   -6.8272    4.8311 C   0  0  0  0  0  0  0  0  0  0  0  0
    5.4919   -5.6852    4.0165 C   0  0  0  0  0  0  0  0  0  0  0  0
    6.6016   -5.8085    3.4331 O   0  0  0  0  0  0  0  0  0  0  0  0
    4.7304   -4.4700    3.9000 N   0  0  0  0  0  0  0  0  0  0  0  0
    3.8078   -4.4175    4.3874 H   0  0  0  0  0  0  0  0  0  0  0  0
    6.5921   -0.3888    1.7610 C   0  0  0  0  0  0  0  0  0  0  0  0
    7.4424   -0.9482    0.7977 O   0  0  0  0  0  0  0  0  0  0  0  0
    7.7144   -1.8416    1.1364 H   0  0  0  0  0  0  0  0  0  0  0  0
  1 16  1  0  0  0
  1  2  1  0  0  0
  1  8  1  0  0  0
  2  3  1  0  0  0
  2  4  1  0  0  0
  3 10  1  0  0  0
  4  5  1  0  0  0
  5 18  1  0  0  0
  5  6  1  0  0  0
  6  7  1  0  0  0
  6  8  1  0  0  0
  7 11  1  0  0  0
  8  9  1  0  0  0
  9 12  1  0  0  0
 13 14  1  0  0  0
 14 15  2  0  0  0
 14 16  1  0  0  0
 16 17  1  0  0  0
 18 19  1  0  0  0
 19 20  1  0  0  0
M  END
> <COMPND>
    UNNAMED

> <AUTHOR>
    GENERATED BY OPEN BABEL 3.1.0

> <MASTER>
        0    0    0    0    0    0    0    0   20    0   20    0

> <minimizedAffinity>
-5.76867

> <CNNscore>
0.5601159930

> <CNNaffinity>
3.9219558239

> <CNN_VS>
2.1967501640

> <CNNaffinity_variance>
0.2916148305

$$$$



 20 20  0  0  0  0  0  0  0  0999 V2000
    7.4294   -3.6223   -3.6482 C   0  0  0  0  0  0  0  0  0  0  0  0
    8.0150   -2.5090   -4.5401 C   0  0  0  0  0  0  0  0  0  0  0  0
    9.2340   -2.0862   -3.9907 O   0  0  0  0  0  0  0  0  0  0  0  0
    7.1396   -1.3962   -4.6093 O   0  0  0  0  0  0  0  0  0  0  0  0
    5.7780   -1.7107   -4.9144 C   0  0  0  0  0  0  0  0  0  0  0  0
    5.4769   -3.2007   -5.2527 C   0  0  0  0  0  0  0  0  0  0  0  0
    5.9799   -3.4867   -6.5340 O   0  0  0  0  0  0  0  0  0  0  0  0
    6.0948   -4.1685   -4.2123 C   0  0  0  0  0  0  0  0  0  0  0  0
    5.1967   -4.3712   -3.1478 O   0  0  0  0  0  0  0  0  0  0  0  0
    9.6329   -1.4538   -4.6431 H   0  0  0  0  0  0  0  0  0  0  0  0
    5.5273   -4.3127   -6.8480 H   0  0  0  0  0  0  0  0  0  0  0  0
    4.4841   -4.9750   -3.4810 H   0  0  0  0  0  0  0  0  0  0  0  0
   10.2613   -6.3111   -4.0797 C   0  0  0  0  0  0  0  0  0  0  0  0
    9.2737   -5.2438   -4.4282 C   0  0  0  0  0  0  0  0  0  0  0  0
    9.2195   -4.8304   -5.6170 O   0  0  0  0  0  0  0  0  0  0  0  0
    8.3993   -4.7044   -3.4210 N   0  0  0  0  0  0  0  0  0  0  0  0
    8.4675   -5.0882   -2.4516 H   0  0  0  0  0  0  0  0  0  0  0  0
    4.8853   -1.2073   -3.7676 C   0  0  0  0  0  0  0  0  0  0  0  0
    4.3411    0.0445   -4.0844 O   0  0  0  0  0  0  0  0  0  0  0  0
    5.0349    0.7232   -3.8723 H   0  0  0  0  0  0  0  0  0  0  0  0
  1 16  1  0  0  0
  1  2  1  0  0  0
  1  8  1  0  0  0
  2  3  1  0  0  0
  2  4  1  0  0  0
  3 10  1  0  0  0
  4  5  1  0  0  0
  5 18  1  0  0  0
  5  6  1  0  0  0
  6  7  1  0  0  0
  6  8  1  0  0  0
  7 11  1  0  0  0
  8  9  1  0  0  0
  9 12  1  0  0  0
 13 14  1  0  0  0
 14 15  2  0  0  0
 14 16  1  0  0  0
 16 17  1  0  0  0
 18 19  1  0  0  0
 19 20  1  0  0  0
M  END
> <COMPND>
    UNNAMED

> <AUTHOR>
    GENERATED BY OPEN BABEL 3.1.0

> <MASTER>
        0    0    0    0    0    0    0    0   20    0   20    0

> <minimizedAffinity>
-7.53542

> <CNNscore>
0.5584722757

> <CNNaffinity>
3.6703166962

> <CNN_VS>
2.0497701168

> <CNNaffinity_variance>
0.1007829532

$$$$



 20 20  0  0  0  0  0  0  0  0999 V2000
    7.2621   -2.2965   -1.9519 C   0  0  0  0  0  0  0  0  0  0  0  0
    7.6948   -2.6991   -3.3761 C   0  0  0  0  0  0  0  0  0  0  0  0
    9.0046   -2.2476   -3.5935 O   0  0  0  0  0  0  0  0  0  0  0  0
    6.8474   -2.1163   -4.3516 O   0  0  0  0  0  0  0  0  0  0  0  0
    5.4460   -2.2797   -4.1165 C   0  0  0  0  0  0  0  0  0  0  0  0
    5.0530   -3.1767   -2.9057 C   0  0  0  0  0  0  0  0  0  0  0  0
    5.2999   -4.5207   -3.2363 O   0  0  0  0  0  0  0  0  0  0  0  0
    5.8333   -2.7944   -1.6228 C   0  0  0  0  0  0  0  0  0  0  0  0
    5.1467   -1.7850   -0.9224 O   0  0  0  0  0  0  0  0  0  0  0  0
    9.2881   -2.6166   -4.4699 H   0  0  0  0  0  0  0  0  0  0  0  0
    4.7778   -5.0783   -2.6022 H   0  0  0  0  0  0  0  0  0  0  0  0
    4.3708   -2.2158   -0.4800 H   0  0  0  0  0  0  0  0  0  0  0  0
    9.3251   -2.7668    1.3584 C   0  0  0  0  0  0  0  0  0  0  0  0
    8.3349   -2.2051    0.3891 C   0  0  0  0  0  0  0  0  0  0  0  0
    7.5972   -1.2524    0.7570 O   0  0  0  0  0  0  0  0  0  0  0  0
    8.2327   -2.7435   -0.9412 N   0  0  0  0  0  0  0  0  0  0  0  0
    8.8753   -3.5227   -1.2087 H   0  0  0  0  0  0  0  0  0  0  0  0
    4.7961   -0.8894   -4.0153 C   0  0  0  0  0  0  0  0  0  0  0  0
    4.4493   -0.4174   -5.2884 O   0  0  0  0  0  0  0  0  0  0  0  0
    5.2723   -0.0286   -5.6864 H   0  0  0  0  0  0  0  0  0  0  0  0
  1 16  1  0  0  0
  1  2  1  0  0  0
  1  8  1  0  0  0
  2  3  1  0  0  0
  2  4  1  0  0  0
  3 10  1  0  0  0
  4  5  1  0  0  0
  5 18  1  0  0  0
  5  6  1  0  0  0
  6  7  1  0  0  0
  6  8  1  0  0  0
  7 11  1  0  0  0
  8  9  1  0  0  0
  9 12  1  0  0  0
 13 14  1  0  0  0
 14 15  2  0  0  0
 14 16  1  0  0  0
 16 17  1  0  0  0
 18 19  1  0  0  0
 19 20  1  0  0  0
M  END
> <COMPND>
    UNNAMED

> <AUTHOR>
    GENERATED BY OPEN BABEL 3.1.0

> <MASTER>
        0    0    0    0    0    0    0    0   20    0   20    0

> <minimizedAffinity>
-7.23973

> <CNNscore>
0.5198460817

> <CNNaffinity>
3.7349066734

> <CNN_VS>
1.9415766001

> <CNNaffinity_variance>
0.1099511385

$$$$



 20 20  0  0  0  0  0  0  0  0999 V2000
    7.0492   -1.2575    2.5250 C   0  0  0  0  0  0  0  0  0  0  0  0
    5.6635   -0.6209    2.7541 C   0  0  0  0  0  0  0  0  0  0  0  0
    5.7830    0.3790    3.7300 O   0  0  0  0  0  0  0  0  0  0  0  0
    4.7269   -1.5844    3.2055 O   0  0  0  0  0  0  0  0  0  0  0  0
    4.6776   -2.7912    2.4393 C   0  0  0  0  0  0  0  0  0  0  0  0
    5.5563   -2.8247    1.1541 C   0  0  0  0  0  0  0  0  0  0  0  0
    4.9614   -2.0097    0.1750 O   0  0  0  0  0  0  0  0  0  0  0  0
    7.0056   -2.3508    1.4293 C   0  0  0  0  0  0  0  0  0  0  0  0
    7.8007   -3.4385    1.8360 O   0  0  0  0  0  0  0  0  0  0  0  0
    4.9043    0.8382    3.7721 H   0  0  0  0  0  0  0  0  0  0  0  0
    5.3476   -2.2751   -0.7003 H   0  0  0  0  0  0  0  0  0  0  0  0
    7.9910   -3.9773    1.0255 H   0  0  0  0  0  0  0  0  0  0  0  0
   10.4456    0.6686    2.0887 C   0  0  0  0  0  0  0  0  0  0  0  0
    9.4812   -0.4078    2.4722 C   0  0  0  0  0  0  0  0  0  0  0  0
    9.9238   -1.4564    3.0123 O   0  0  0  0  0  0  0  0  0  0  0  0
    8.0725   -0.2428    2.2307 N   0  0  0  0  0  0  0  0  0  0  0  0
    7.7480    0.6498    1.7953 H   0  0  0  0  0  0  0  0  0  0  0  0
    4.9964   -3.9778    3.3645 C   0  0  0  0  0  0  0  0  0  0  0  0
    5.5806   -3.5264    4.5555 O   0  0  0  0  0  0  0  0  0  0  0  0
    6.5458   -3.3841    4.3680 H   0  0  0  0  0  0  0  0  0  0  0  0
  1 16  1  0  0  0
  1  2  1  0  0  0
  1  8  1  0  0  0
  2  3  1  0  0  0
  2  4  1  0  0  0
  3 10  1  0  0  0
  4  5  1  0  0  0
  5 18  1  0  0  0
  5  6  1  0  0  0
  6  7  1  0  0  0
  6  8  1  0  0  0
  7 11  1  0  0  0
  8  9  1  0  0  0
  9 12  1  0  0  0
 13 14  1  0  0  0
 14 15  2  0  0  0
 14 16  1  0  0  0
 16 17  1  0  0  0
 18 19  1  0  0  0
 19 20  1  0  0  0
M  END
> <COMPND>
    UNNAMED

> <AUTHOR>
    GENERATED BY OPEN BABEL 3.1.0

> <MASTER>
        0    0    0    0    0    0    0    0   20    0   20    0

> <minimizedAffinity>
-5.60160

> <CNNscore>
0.5096546412

> <CNNaffinity>
3.5210177898

> <CNN_VS>
1.7945030928

> <CNNaffinity_variance>
0.3245560527

$$$$
